NOVO24/1726528/Linhas.dss
! ==========================================================
! LINHAS — geradas de SSDMT
! Barras = PAC_1 / PAC_2 da BDGD (preservados)
! ==========================================================
New Line.247223927 Bus1=node_442095346.1.2.3 Bus2=node_442095390.1.2.3 LineCode=CND_11_3F Length=101.58 Units=m
New Line.2418661597 Bus1=node_2582278134.1.2.3 Bus2=node_2582278144.1.2.3 LineCode=CND_4_3F Length=27.57 Units=m
New Line.247379360 Bus1=node_442933101.1.2.3 Bus2=node_442933061.1.2.3 LineCode=CND_11_3F Length=103.67 Units=m
New Line.246926416 Bus1=node_441209387.1.2.3 Bus2=node_438289443.1.2.3 LineCode=CND_11_3F Length=115.54 Units=m
New Line.247378331 Bus1=node_1165765188.2 Bus2=node_442781940.2 LineCode=CND_907_1F Length=136.79 Units=m
New Line.247226984 Bus1=node_442660646.1.2.3 Bus2=node_442660040.1.2.3 LineCode=CND_11_3F Length=116.73 Units=m
New Line.244415920 Bus1=node_428046241.1.2.3 Bus2=node_428046242.1.2.3 LineCode=CND_20_3F Length=5.11 Units=m
New Line.243963102 Bus1=node_426142669.1.2.3 Bus2=node_426142629.1.2.3 LineCode=CND_20_3F Length=35.57 Units=m
New Line.243962051 Bus1=node_425982785.1.2.3 Bus2=node_425982264.1.2.3 LineCode=CND_50_3F Length=33.20 Units=m
New Line.244127315 Bus1=node_426302470.1.2.3 Bus2=node_426300571.1.2.3 LineCode=CND_20_3F Length=29.95 Units=m
New Line.243962138 Bus1=node_425983100.2 Bus2=node_425983243.2 LineCode=CND_899_1F Length=65.02 Units=m
New Line.245829068 Bus1=node_435267147.1.2.3 Bus2=node_435266402.1.2.3 LineCode=CND_30_3F Length=117.76 Units=m
New Line.244574532 Bus1=node_428822215.1.2.3 Bus2=node_428822216.1.2.3 LineCode=CND_19_3F Length=27.04 Units=m
New Line.247075842 Bus1=node_441661948.1.2.3 Bus2=node_441810534.1.2.3 LineCode=CND_11_3F Length=104.98 Units=m
New Line.246145125 Bus1=node_425809482.1.2.3 Bus2=node_436546991.1.2.3 LineCode=CND_51_3F Length=56.85 Units=m
New Line.247377510 Bus1=node_442517800.3 Bus2=node_442659885.3 LineCode=CND_907_1F Length=217.90 Units=m
New Line.244129955 Bus1=node_426786342.1.2.3 Bus2=node_426788045.1.2.3 LineCode=CND_50_3F Length=31.99 Units=m
New Line.246145250 Bus1=node_432287221.1.2.3 Bus2=node_436547616.1.2.3 LineCode=CND_51_3F Length=254.02 Units=m
New Line.243963246 Bus1=node_426143149.1.2.3 Bus2=node_426143388.1.2.3 LineCode=CND_20_3F Length=36.29 Units=m
New Line.1596779722 Bus1=node_432596082.1 Bus2=node_1740886399.1 LineCode=CND_902_1F Length=75.82 Units=m
New Line.2602669196 Bus1=node_2755686998.1.2.3 Bus2=node_2755687008.1.2.3 LineCode=CND_10_3F Length=37.74 Units=m
New Line.243963308 Bus1=node_426143703.1.2.3 Bus2=node_426143508.1.2.3 LineCode=CND_50_3F Length=43.88 Units=m
New Line.2049080203 Bus1=node_2335709192.1.2.3 Bus2=node_2364157971.1.2.3 LineCode=CND_10_3F Length=2.29 Units=m
New Line.2552493441 Bus1=node_2814071181.1 Bus2=node_2814071234.1 LineCode=CND_926_1F Length=3.63 Units=m
New Line.244415278 Bus1=node_427871271.1.2.3 Bus2=node_427871272.1.2.3 LineCode=CND_20_3F Length=43.67 Units=m
New Line.246458835 Bus1=node_438111225.1 Bus2=node_438111385.1 LineCode=CND_907_1F Length=95.20 Units=m
New Line.244130308 Bus1=node_426922959.1.2.3 Bus2=node_426922960.1.2.3 LineCode=CND_50_3F Length=144.22 Units=m
New Line.247224084 Bus1=node_442096056.1.2.3 Bus2=node_442096586.1.2.3 LineCode=CND_19_3F Length=14.37 Units=m
New Line.247076329 Bus1=node_441812968.1.2.3 Bus2=node_441812963.1.2.3 LineCode=CND_19_3F Length=26.65 Units=m
New Line.247223773 Bus1=node_441663173.1.2.3 Bus2=node_442095031.1.2.3 LineCode=CND_11_3F Length=84.83 Units=m
New Line.244416027 Bus1=node_428046187.1.2.3 Bus2=node_428045266.1.2.3 LineCode=CND_20_3F Length=35.86 Units=m
New Line.245829449 Bus1=node_435266033.1.2.3 Bus2=node_435269067.1.2.3 LineCode=CND_20_3F Length=10.89 Units=m
New Line.244737685 Bus1=node_429603752.1 Bus2=node_429603747.1 LineCode=CND_907_1F Length=30.87 Units=m
New Line.247224234 Bus1=node_442097321.1 Bus2=node_442097336.1 LineCode=CND_907_1F Length=298.48 Units=m
New Line.247223258 Bus1=node_441955042.1.2.3 Bus2=node_435268321.1.2.3 LineCode=CND_19_3F Length=41.96 Units=m
New Line.247225226 Bus1=node_442095906.1.2.3 Bus2=node_442372822.1.2.3 LineCode=CND_19_3F Length=8.78 Units=m
New Line.247377800 Bus1=node_442663355.2 Bus2=node_442663356.2 LineCode=CND_902_1F Length=54.08 Units=m
New Line.771472959 Bus1=node_1044339562.3 Bus2=node_1044339572.3 LineCode=CND_907_1F Length=84.85 Units=m
New Line.247377988 Bus1=node_2701155128.1.2.3 Bus2=node_442780234.1.2.3 LineCode=CND_11_3F Length=220.69 Units=m
New Line.247634693 Bus1=node_426300591.1.2.3 Bus2=node_444366289.1.2.3 LineCode=CND_4_3F Length=44.57 Units=m
New Line.247226966 Bus1=node_442660635.1.2.3 Bus2=node_442660636.1.2.3 LineCode=CND_11_3F Length=51.71 Units=m
New Line.247223198 Bus1=node_441954747.1.2.3 Bus2=node_441953328.1.2.3 LineCode=CND_19_3F Length=27.07 Units=m
New Line.247226527 Bus1=node_442516734.1.2.3 Bus2=node_442516735.1.2.3 LineCode=CND_11_3F Length=163.79 Units=m
New Line.247223395 Bus1=node_441955243.1.2.3 Bus2=node_441952852.1.2.3 LineCode=CND_19_3F Length=24.82 Units=m
New Line.247224634 Bus1=node_442223856.2 Bus2=node_442223862.2 LineCode=CND_902_1F Length=35.06 Units=m
New Line.247074237 Bus1=node_441506203.1 Bus2=node_441506223.1 LineCode=CND_907_1F Length=131.32 Units=m
New Line.246146160 Bus1=node_436697659.1.2.3 Bus2=node_436698163.1.2.3 LineCode=CND_51_3F Length=112.99 Units=m
New Line.247224041 Bus1=node_442096370.1.2.3 Bus2=node_442094335.1.2.3 LineCode=CND_19_3F Length=20.99 Units=m
New Line.1345453361 Bus1=node_1639473161.1.2.3 Bus2=node_1639473172.1.2.3 LineCode=CND_10_3F Length=24.36 Units=m
New Line.247224525 Bus1=node_442097171.1.2.3 Bus2=node_442223317.1.2.3 LineCode=CND_19_3F Length=20.07 Units=m
New Line.2629364122 Bus1=node_2780741494.1.2.3 Bus2=node_442662595.1.2.3 LineCode=CND_471_3F Length=40.70 Units=m
New Line.245052337 Bus1=node_431344560.1.2.3 Bus2=node_431344550.1.2.3 LineCode=CND_11_3F Length=119.26 Units=m
New Line.245992960 Bus1=node_436093523.1.2.3 Bus2=node_436091745.1.2.3 LineCode=CND_51_3F Length=82.86 Units=m
New Line.247378194 Bus1=node_442663766.1.2.3 Bus2=node_442660960.1.2.3 LineCode=CND_11_3F Length=143.26 Units=m
New Line.1460707226 Bus1=node_1758036658.1 Bus2=node_1758036743.1 LineCode=CND_902_1F Length=6.25 Units=m
New Line.247224093 Bus1=node_442094661.1.2.3 Bus2=node_442096631.1.2.3 LineCode=CND_19_3F Length=23.59 Units=m
New Line.245052202 Bus1=node_431343882.1 Bus2=node_431343892.1 LineCode=CND_907_1F Length=30.03 Units=m
New Line.245199264 Bus1=node_432289631.3 Bus2=node_432289632.3 LineCode=CND_907_1F Length=98.25 Units=m
New Line.246458507 Bus1=node_438109740.1.2.3 Bus2=node_438109741.1.2.3 LineCode=CND_11_3F Length=62.86 Units=m
New Line.244415917 Bus1=node_428046182.1.2.3 Bus2=node_428046227.1.2.3 LineCode=CND_20_3F Length=35.03 Units=m
New Line.245052848 Bus1=node_431506011.1.2.3 Bus2=node_429602548.1.2.3 LineCode=CND_11_3F Length=75.65 Units=m
New Line.245828419 Bus1=node_435096438.1.2.3 Bus2=node_435096439.1.2.3 LineCode=CND_20_3F Length=24.56 Units=m
New Line.245346779 Bus1=node_432597778.1 Bus2=node_432594828.1 LineCode=CND_907_1F Length=195.19 Units=m
New Line.2001128573 Bus1=node_2319374161.1 Bus2=node_2319374171.1 LineCode=CND_911_1F Length=40.47 Units=m
New Line.247379134 Bus1=node_442931707.1.2.3 Bus2=node_431343926.1.2.3 LineCode=CND_11_3F Length=79.40 Units=m
New Line.748761958 Bus1=node_440584749.1.2.3 Bus2=node_431506221.1.2.3 LineCode=CND_11_3F Length=90.10 Units=m
New Line.243963254 Bus1=node_426143154.1.2.3 Bus2=node_426143358.1.2.3 LineCode=CND_20_3F Length=40.43 Units=m
New Line.247378447 Bus1=node_442782534.1.2.3 Bus2=node_442782535.1.2.3 LineCode=CND_11_3F Length=100.98 Units=m
New Line.247225836 Bus1=node_442375871.2 Bus2=node_442375872.2 LineCode=CND_907_1F Length=73.05 Units=m
New Line.247225139 Bus1=node_442372382.2 Bus2=node_442372383.2 LineCode=CND_907_1F Length=91.83 Units=m
New Line.245054110 Bus1=node_431658315.1.2.3 Bus2=node_431658326.1.2.3 LineCode=CND_88_3F Length=16.07 Units=m
New Line.2602669130 Bus1=node_2755686938.1.2.3 Bus2=node_2755686948.1.2.3 LineCode=CND_10_3F Length=40.20 Units=m
New Line.2602668536 Bus1=node_2755686385.1.2.3 Bus2=node_2755686411.1.2.3 LineCode=CND_10_3F Length=31.33 Units=m
New Line.2418662187 Bus1=node_2602477975.1.2.3 Bus2=node_2602477985.1.2.3 LineCode=CND_4_3F Length=46.27 Units=m
New Line.2602668312 Bus1=node_2755686186.1.2.3 Bus2=node_2755686196.1.2.3 LineCode=CND_10_3F Length=39.64 Units=m
New Line.245347062 Bus1=node_2724385134.2 Bus2=node_432758116.2 LineCode=CND_907_1F Length=112.76 Units=m
New Line.247377823 Bus1=node_442663470.1.2.3 Bus2=node_442663471.1.2.3 LineCode=CND_11_3F Length=57.16 Units=m
New Line.247075854 Bus1=node_441810559.1.2.3 Bus2=node_441810594.1.2.3 LineCode=CND_11_3F Length=106.54 Units=m
New Line.1345453372 Bus1=node_1639473172.1.2.3 Bus2=node_1639473183.1.2.3 LineCode=CND_10_3F Length=41.42 Units=m
New Line.247226650 Bus1=node_1730288802.1.2.3 Bus2=node_442517350.1.2.3 LineCode=CND_19_3F Length=23.03 Units=m
New Line.366918245 Bus1=node_428823168.1 Bus2=node_1272625663.1 LineCode=CND_902_1F Length=3.03 Units=m
New Line.247075187 Bus1=node_441661262.1.2.3 Bus2=node_441661263.1.2.3 LineCode=CND_19_3F Length=38.01 Units=m
New Line.247224419 Bus1=node_442095226.1.2.3 Bus2=node_442222787.1.2.3 LineCode=CND_19_3F Length=17.38 Units=m
New Line.243963517 Bus1=node_426144752.2 Bus2=node_426144617.2 LineCode=CND_909_1F Length=117.18 Units=m
New Line.763065282 Bus1=node_440584295.1.2.3 Bus2=node_1036210959.1.2.3 LineCode=CND_19_3F Length=3.16 Units=m
New Line.247225705 Bus1=node_428958771.3 Bus2=node_442375217.3 LineCode=CND_907_1F Length=210.11 Units=m
New Line.245993263 Bus1=node_436238542.1.2.3 Bus2=node_436238222.1.2.3 LineCode=CND_51_3F Length=146.60 Units=m
New Line.247634369 Bus1=node_444366405.1.2.3 Bus2=node_436090235.1.2.3 LineCode=CND_271_3F Length=96.49 Units=m
New Line.246145293 Bus1=node_436547830.1.2.3 Bus2=node_436547831.1.2.3 LineCode=CND_51_3F Length=123.41 Units=m
New Line.246146811 Bus1=node_436834373.1.2.3 Bus2=node_436834053.1.2.3 LineCode=CND_51_3F Length=60.98 Units=m
New Line.244130253 Bus1=node_426922684.1.2.3 Bus2=node_426922679.1.2.3 LineCode=CND_50_3F Length=93.96 Units=m
New Line.243962066 Bus1=node_425982405.2 Bus2=node_425982890.2 LineCode=CND_909_1F Length=61.18 Units=m
New Line.246923273 Bus1=node_440583914.1.2.3 Bus2=node_440583915.1.2.3 LineCode=CND_11_3F Length=74.13 Units=m
New Line.245199664 Bus1=node_432441929.3 Bus2=node_432441895.3 LineCode=CND_907_1F Length=125.60 Units=m
New Line.245829492 Bus1=node_428822201.1.2.3 Bus2=node_428046666.1.2.3 LineCode=CND_20_3F Length=28.51 Units=m
New Line.246146111 Bus1=node_436697928.1.2.3 Bus2=node_436697929.1.2.3 LineCode=CND_51_3F Length=141.29 Units=m
New Line.245052830 Bus1=node_431505921.1 Bus2=node_428344933.1 LineCode=CND_907_1F Length=36.51 Units=m
New Line.244127260 Bus1=node_426302186.1.2.3 Bus2=node_426302196.1.2.3 LineCode=CND_13_3F Length=123.38 Units=m
New Line.244415644 Bus1=node_428044802.1.2.3 Bus2=node_428044862.1.2.3 LineCode=CND_20_3F Length=7.69 Units=m
New Line.244574534 Bus1=node_428822225.1.2.3 Bus2=node_428822226.1.2.3 LineCode=CND_19_3F Length=12.36 Units=m
New Line.247729817 Bus1=node_444462266.1.2.3 Bus2=node_444462271.1.2.3 LineCode=CND_13_3F Length=202.07 Units=m
New Line.1976975008 Bus1=node_2239866841.1.2.3 Bus2=node_2239866930.1.2.3 LineCode=CND_10_3F Length=43.22 Units=m
New Line.247634387 Bus1=node_428045211.1.2.3 Bus2=node_444367259.1.2.3 LineCode=CND_253_3F Length=18.00 Units=m
New Line.247378256 Bus1=node_442781575.2 Bus2=node_442781576.2 LineCode=CND_907_1F Length=52.37 Units=m
New Line.247076643 Bus1=node_441951948.1.2.3 Bus2=node_441951949.1.2.3 LineCode=CND_11_3F Length=330.25 Units=m
New Line.1938046821 Bus1=node_2255138325.1.2.3 Bus2=node_441661253.1.2.3 LineCode=CND_11_3F Length=16.15 Units=m
New Line.247224079 Bus1=node_442096026.1.2.3 Bus2=node_442094650.1.2.3 LineCode=CND_11_3F Length=98.41 Units=m
New Line.247377931 Bus1=node_442664005.2 Bus2=node_442664011.2 LineCode=CND_907_1F Length=42.74 Units=m
New Line.247224512 Bus1=node_442222797.1.2.3 Bus2=node_442096055.1.2.3 LineCode=CND_19_3F Length=36.62 Units=m
New Line.245054212 Bus1=node_431658591.1.2.3 Bus2=node_431800538.1.2.3 LineCode=CND_88_3F Length=27.82 Units=m
New Line.247073935 Bus1=node_441371598.1 Bus2=node_441371599.1 LineCode=CND_907_1F Length=128.86 Units=m
New Line.748762001 Bus1=node_1022023766.1 Bus2=node_1515567582.1 LineCode=CND_902_1F Length=4.14 Units=m
New Line.247377775 Bus1=node_442663186.1.2.3 Bus2=node_442663231.1.2.3 LineCode=CND_11_3F Length=88.89 Units=m
New Line.244126967 Bus1=node_426300647.1.2.3 Bus2=node_426300727.1.2.3 LineCode=CND_20_3F Length=33.71 Units=m
New Line.247378917 Bus1=node_442782835.1.2.3 Bus2=node_442930722.1.2.3 LineCode=CND_11_3F Length=91.93 Units=m
New Line.244737737 Bus1=node_429603743.1.2.3 Bus2=node_428344824.1.2.3 LineCode=CND_11_3F Length=125.35 Units=m
New Line.244129652 Bus1=node_426786541.2 Bus2=node_426786542.2 LineCode=CND_909_1F Length=39.74 Units=m
New Line.247224842 Bus1=node_442223552.1.2.3 Bus2=node_442224902.1.2.3 LineCode=CND_11_3F Length=133.65 Units=m
New Line.246926425 Bus1=node_441209432.1.2.3 Bus2=node_428344804.1.2.3 LineCode=CND_11_3F Length=122.71 Units=m
New Line.243961856 Bus1=node_425810075.1.2.3 Bus2=node_425810076.1.2.3 LineCode=CND_50_3F Length=107.49 Units=m
New Line.1891210866 Bus1=node_2212028595.1.2.3 Bus2=node_2212028736.1.2.3 LineCode=CND_19_3F Length=2.20 Units=m
New Line.247226302 Bus1=node_442095781.1.2.3 Bus2=node_442515610.1.2.3 LineCode=CND_11_3F Length=515.28 Units=m
New Line.247074125 Bus1=node_1023818425.1.2.3 Bus2=node_441505663.1.2.3 LineCode=CND_11_3F Length=37.67 Units=m
New Line.245052664 Bus1=node_431505091.1.2.3 Bus2=node_431505076.1.2.3 LineCode=CND_11_3F Length=101.54 Units=m
New Line.247074811 Bus1=node_441505468.3 Bus2=node_441659383.3 LineCode=CND_907_1F Length=112.93 Units=m
New Line.245051776 Bus1=node_426788895.3 Bus2=node_431341762.3 LineCode=CND_907_1F Length=158.50 Units=m
New Line.247225918 Bus1=node_442375362.1.2.3 Bus2=node_442376282.1.2.3 LineCode=CND_11_3F Length=73.93 Units=m
New Line.247076648 Bus1=node_441951973.1.2.3 Bus2=node_441660952.1.2.3 LineCode=CND_11_3F Length=408.85 Units=m
New Line.2602668898 Bus1=node_2755686730.1.2.3 Bus2=node_2755686740.1.2.3 LineCode=CND_10_3F Length=26.88 Units=m
New Line.2418663314 Bus1=node_431504342.1.2.3 Bus2=node_2602479440.1.2.3 LineCode=CND_471_3F Length=101.43 Units=m
New Line.247377384 Bus1=node_442516735.1.2.3 Bus2=node_442661276.1.2.3 LineCode=CND_11_3F Length=161.94 Units=m
New Line.246923397 Bus1=node_431506537.1.2.3 Bus2=node_440581644.1.2.3 LineCode=CND_11_3F Length=72.10 Units=m
New Line.244737761 Bus1=node_429604136.1.2.3 Bus2=node_429604137.1.2.3 LineCode=CND_11_3F Length=48.36 Units=m
New Line.968855274 Bus1=node_1230651882.2 Bus2=node_1230651934.2 LineCode=CND_902_1F Length=2.37 Units=m
New Line.1389115626 Bus1=node_1685072977.1.2.3 Bus2=node_1685073028.1.2.3 LineCode=CND_10_3F Length=36.64 Units=m
New Line.2418662035 Bus1=node_2602477772.1.2.3 Bus2=node_2602477782.1.2.3 LineCode=CND_4_3F Length=59.42 Units=m
New Line.245053325 Bus1=node_431654392.1.2.3 Bus2=node_431654393.1.2.3 LineCode=CND_11_3F Length=111.95 Units=m
New Line.247379354 Bus1=node_431343056.2 Bus2=node_442933072.2 LineCode=CND_907_1F Length=91.03 Units=m
New Line.244573876 Bus1=node_428664339.1.2.3 Bus2=node_428664340.1.2.3 LineCode=CND_31_3F Length=29.37 Units=m
New Line.243962028 Bus1=node_425982699.1.2.3 Bus2=node_425982700.1.2.3 LineCode=CND_50_3F Length=31.92 Units=m
New Line.247224422 Bus1=node_442096111.1.2.3 Bus2=node_442096115.1.2.3 LineCode=CND_19_3F Length=33.97 Units=m
New Line.247074943 Bus1=node_441660042.1.2.3 Bus2=node_441660043.1.2.3 LineCode=CND_19_3F Length=16.05 Units=m
New Line.246146627 Bus1=node_436833201.1.2.3 Bus2=node_436833545.1.2.3 LineCode=CND_51_3F Length=93.05 Units=m
New Line.246145179 Bus1=node_436547260.1.2.3 Bus2=node_436547261.1.2.3 LineCode=CND_51_3F Length=60.34 Units=m
New Line.2418663856 Bus1=node_2710237687.1.2.3 Bus2=node_2602480287.1.2.3 LineCode=CND_4_3F Length=18.58 Units=m
New Line.247223148 Bus1=node_441952239.1.2.3 Bus2=node_441954498.1.2.3 LineCode=CND_11_3F Length=53.16 Units=m
New Line.247379041 Bus1=node_442780694.1.2.3 Bus2=node_442659925.1.2.3 LineCode=CND_11_3F Length=77.97 Units=m
New Line.247074732 Bus1=node_441508697.1.2.3 Bus2=node_441508698.1.2.3 LineCode=CND_19_3F Length=34.16 Units=m
New Line.247224308 Bus1=node_441661738.1.2.3 Bus2=node_442222232.1.2.3 LineCode=CND_11_3F Length=157.24 Units=m
New Line.247729834 Bus1=node_444462355.1.2.3 Bus2=node_444462356.1.2.3 LineCode=CND_28_3F Length=27.00 Units=m
New Line.2160315805 Bus1=node_2469745863.1.2.3 Bus2=node_2469745890.1.2.3 LineCode=CND_51_3F Length=94.33 Units=m
New Line.246923442 Bus1=node_440584759.1.2.3 Bus2=node_440584749.1.2.3 LineCode=CND_11_3F Length=61.25 Units=m
New Line.1345453173 Bus1=node_1639472967.1.2.3 Bus2=node_1639472978.1.2.3 LineCode=CND_10_3F Length=40.63 Units=m
New Line.247226366 Bus1=node_442515929.3 Bus2=node_442515930.3 LineCode=CND_907_1F Length=117.68 Units=m
New Line.247076337 Bus1=node_441811664.1 Bus2=node_441811298.1 LineCode=CND_902_1F Length=44.26 Units=m
New Line.246923253 Bus1=node_440583814.2 Bus2=node_437966343.2 LineCode=CND_907_1F Length=455.00 Units=m
New Line.247729849 Bus1=node_444462356.1.2.3 Bus2=node_444462350.1.2.3 LineCode=CND_28_3F Length=31.20 Units=m
New Line.247222921 Bus1=node_441953362.1.2.3 Bus2=node_441505662.1.2.3 LineCode=CND_11_3F Length=114.77 Units=m
New Line.245199069 Bus1=node_431800668.1.2.3 Bus2=node_426142634.1.2.3 LineCode=CND_88_3F Length=42.01 Units=m
New Line.247076348 Bus1=node_441813063.1.2.3 Bus2=node_441813064.1.2.3 LineCode=CND_19_3F Length=36.43 Units=m
New Line.247075391 Bus1=node_441659803.1 Bus2=node_441662283.1 LineCode=CND_907_1F Length=129.17 Units=m
New Line.247074087 Bus1=node_441505467.1.2.3 Bus2=node_441505473.1.2.3 LineCode=CND_11_3F Length=139.33 Units=m
New Line.243961966 Bus1=node_425982121.1.2.3 Bus2=node_425982220.1.2.3 LineCode=CND_50_3F Length=35.27 Units=m
New Line.247378176 Bus1=node_442781173.1.2.3 Bus2=node_442661770.1.2.3 LineCode=CND_11_3F Length=51.16 Units=m
New Line.1231652423 Bus1=node_428823134.1.2.3 Bus2=node_1528419419.1.2.3 LineCode=CND_253_3F Length=3.80 Units=m
New Line.247378311 Bus1=node_432596057.1.2.3 Bus2=node_442664120.1.2.3 LineCode=CND_11_3F Length=77.32 Units=m
New Line.246146244 Bus1=node_436698264.1.2.3 Bus2=node_436698594.1.2.3 LineCode=CND_51_3F Length=78.41 Units=m
New Line.245200242 Bus1=node_428959688.1.2.3 Bus2=node_432595114.1.2.3 LineCode=CND_11_3F Length=102.95 Units=m
New Line.245830050 Bus1=node_435430961.1.2.3 Bus2=node_435430962.1.2.3 LineCode=CND_30_3F Length=66.87 Units=m
New Line.245196008 Bus1=node_431800998.1.2.3 Bus2=node_431657387.1.2.3 LineCode=CND_88_3F Length=32.03 Units=m
New Line.1938046143 Bus1=node_2255138737.1.2.3 Bus2=node_2255137038.1.2.3 LineCode=CND_4_3F Length=16.45 Units=m
New Line.247225724 Bus1=node_442375311.1.2.3 Bus2=node_442375251.1.2.3 LineCode=CND_11_3F Length=96.74 Units=m
New Line.2560976283 Bus1=node_432597138.3 Bus2=node_2698264430.3 LineCode=CND_996_1F Length=3.09 Units=m
New Line.247226148 Bus1=node_436697238.1.2.3 Bus2=node_436547785.1.2.3 LineCode=CND_11_3F Length=118.08 Units=m
New Line.247226881 Bus1=node_974278543.3 Bus2=node_974278544.3 LineCode=CND_907_1F Length=73.38 Units=m
New Line.246148271 Bus1=node_437151082.1.2.3 Bus2=node_116866402.1.2.3 LineCode=CND_51_3F Length=88.63 Units=m
New Line.247075650 Bus1=node_441663343.1.2.3 Bus2=node_441663578.1.2.3 LineCode=CND_11_3F Length=143.65 Units=m
New Line.246146342 Bus1=node_436699078.1.2.3 Bus2=node_436699088.1.2.3 LineCode=CND_51_3F Length=67.25 Units=m
New Line.247380166 Bus1=node_443061303.3 Bus2=node_443061658.3 LineCode=CND_907_1F Length=48.81 Units=m
New Line.247222849 Bus1=node_441952983.1.2.3 Bus2=node_441952912.1.2.3 LineCode=CND_19_3F Length=8.76 Units=m
New Line.768656091 Bus1=node_425982394.3 Bus2=node_1041728793.3 LineCode=CND_902_1F Length=36.31 Units=m
New Line.243962101 Bus1=node_425982335.1.2.3 Bus2=node_425982394.1.2.3 LineCode=CND_50_3F Length=37.53 Units=m
New Line.715646654 Bus1=node_988959813.2 Bus2=node_988959838.2 LineCode=CND_902_1F Length=30.81 Units=m
New Line.2418662960 Bus1=node_2602478881.1.2.3 Bus2=node_2602478891.1.2.3 LineCode=CND_4_3F Length=60.66 Units=m
New Line.244737433 Bus1=node_428958552.1.2.3 Bus2=node_429602489.1.2.3 LineCode=CND_11_3F Length=146.29 Units=m
New Line.247223834 Bus1=node_441663463.1.2.3 Bus2=node_442095336.1.2.3 LineCode=CND_11_3F Length=288.61 Units=m
New Line.244573904 Bus1=node_428664479.1.2.3 Bus2=node_428664480.1.2.3 LineCode=CND_31_3F Length=35.45 Units=m
New Line.246922830 Bus1=node_440581699.1.2.3 Bus2=node_440581634.1.2.3 LineCode=CND_11_3F Length=34.65 Units=m
New Line.247378670 Bus1=node_442783651.1.2.3 Bus2=node_436834906.1.2.3 LineCode=CND_11_3F Length=64.59 Units=m
New Line.247225224 Bus1=node_2149108142.1.2.3 Bus2=node_442372811.1.2.3 LineCode=CND_11_3F Length=165.33 Units=m
New Line.247633381 Bus1=node_425809582.1.2.3 Bus2=node_109195482.1.2.3 LineCode=CND_13_3F Length=62.18 Units=m
New Line.243961759 Bus1=node_425809586.1.2.3 Bus2=node_425809587.1.2.3 LineCode=CND_50_3F Length=31.06 Units=m
New Line.243962060 Bus1=node_425982859.1.2.3 Bus2=node_425982860.1.2.3 LineCode=CND_50_3F Length=39.08 Units=m
New Line.247226245 Bus1=node_442515324.1.2.3 Bus2=node_442515325.1.2.3 LineCode=CND_11_3F Length=75.41 Units=m
New Line.246146281 Bus1=node_436698499.1.2.3 Bus2=node_436698779.1.2.3 LineCode=CND_51_3F Length=94.46 Units=m
New Line.247074917 Bus1=node_441659613.1.2.3 Bus2=node_441659913.1.2.3 LineCode=CND_19_3F Length=21.17 Units=m
New Line.247224963 Bus1=node_442225501.1.2.3 Bus2=node_442222556.1.2.3 LineCode=CND_19_3F Length=5.90 Units=m
New Line.247075194 Bus1=node_441507973.1 Bus2=node_441661298.1 LineCode=CND_907_1F Length=482.44 Units=m
New Line.246146178 Bus1=node_436698263.1.2.3 Bus2=node_436698264.1.2.3 LineCode=CND_51_3F Length=113.93 Units=m
New Line.247224845 Bus1=node_442224617.1.2.3 Bus2=node_442224917.1.2.3 LineCode=CND_11_3F Length=87.53 Units=m
...
